# File generated by Flopy version 3.3.5 on 10/01/2024 at 12:40:04.
BEGIN GRIDDATA
  strt  LAYERED
    CONSTANT     100.00000000
    CONSTANT       0.00000000
    CONSTANT       0.00000000
    CONSTANT       0.00000000
END GRIDDATA

