# File generated by Flopy version 3.3.5 on 10/01/2024 at 12:40:04.
BEGIN OPTIONS
  BUDGET  FILEOUT  gv1.cbb
  HEAD  FILEOUT  gv1.hds
END OPTIONS

BEGIN PERIOD  1
  SAVE  head  frequency  1
  SAVE  budget  frequency  1
  PRINT  budget  frequency  1
END PERIOD  1

