# File generated by Flopy version 3.3.5 on 10/01/2024 at 12:40:03.
BEGIN OPTIONS
  TIME_UNITS  days
END OPTIONS

BEGIN DIMENSIONS
  NPER  1
END DIMENSIONS

BEGIN PERIODDATA
      10.00000000  1       1.20000000
END PERIODDATA

