# File generated by Flopy version 3.3.5 on 10/01/2024 at 12:40:03.
BEGIN OPTIONS
  LENGTH_UNITS  meters
  XORIGIN  5.39950000E+05
  YORIGIN  6.30780000E+06
  ANGROT       0.00000000
END OPTIONS

BEGIN DIMENSIONS
  NLAY  4
  NROW  156
  NCOL  162
END DIMENSIONS

BEGIN GRIDDATA
  delr
    CONSTANT      25.00000000
  delc
    CONSTANT      25.00000000
  top
    INTERNAL  FACTOR  1.0
        43.32763700      43.86230500      44.83496100      45.51269500      46.33325200      46.97949200      48.12890600      48.76855500      49.59472700      49.99951200      50.05419900      50.15380900      50.35156300      50.52294900      50.59619100      50.69335900      50.68798800      50.73071300      50.94653300      51.24585000      51.20654300      50.23315400      47.68017600      43.99316400      40.54687500      40.65087900      41.46582000      42.93823200      45.32543900      47.20654300      50.45898400      53.68579100      58.84277300      61.12402300      62.79003900      62.97021500      63.98168900      65.63964800      67.40234400      68.75097700      70.21508800      69.56591800      68.14306600      69.58398400      71.17675800      72.38598600      72.96655300      73.62377900      73.85473600      74.78222700      75.31103500      75.98779300      76.44043000      76.77539100      76.40429700      74.76635700      72.82226600      70.09179700      68.68969700      67.19604500      66.06054700      63.85546900      62.62841800      59.81250000      58.39892600      56.39868200      55.12402300      53.98852500      53.15063500      51.92285200      51.42504900      50.43750000      49.54003900      47.91796900      46.64209000      45.59277300      44.80566400      43.85888700      43.18579100      42.27294900      41.84082000      41.32812500      41.21215800      41.40673800      41.77246100      42.48144500      42.75000000      43.04736300      43.30175800      43.76098600      44.18286100      45.10351600      45.68139600      46.41748000      47.21777300      48.78808600      49.99414100      51.33837900      52.16210900      53.23315400      53.68603500      55.56567400      56.69848600      58.09130900      59.09008800      60.50927700      61.60107400      63.72802700      64.81787100      65.93798800      66.61474600      67.31127900      67.28881800      66.79834000      66.13598600      63.87353500      64.36816400      69.55224600      71.44335900      73.16894500      72.97363300      72.89209000      73.37060500      74.84350600      77.20068400      77.96435500      79.35791000      79.64453100      79.89331100      80.29443400      80.78540000      80.73852500      80.85156300      80.81298800      80.17871100      79.79882800      77.20166000      77.62109400      79.21337900      80.49218800      81.30444300      81.33325200      80.89575200      80.31640600      79.20068400      78.40234400      81.38232400      82.61621100      83.37353500      85.54345700      90.80688500      93.23168900      92.71044900      96.10107400      96.69335900      97.10742200      96.50244100      95.57714800      93.62109400      92.59472700      91.70776400      89.48706100
        44.08203100      44.66894500      45.64648400      46.30859400      47.23193400      47.86816400      48.65527300      49.21289100      50.11621100      50.35498000      50.30957000      50.42431600      50.40136700      50.52050800      50.77099600      50.98437500      51.03173800      51.07666000      51.15039100      51.35742200      51.11230500      49.74218800      45.31054700      41.73046900      40.93457000      41.06738300      42.51513700      45.15429700      48.17187500      52.01464800      55.58740200      57.49902300      59.67382800      61.20312500      62.86132800      63.44238300      65.08252000      66.76660200      68.33593800      69.43457000      70.73925800      69.46386700      68.89746100      71.24121100      72.57812500      73.61474600      74.15185500      74.56591800      74.68554700      75.58105500      76.16259800      76.95214800      77.21777300      77.21093800      76.83593800      76.11084000      74.44043000      70.78857400      69.23144500      69.71679700      69.10009800      67.10742200      65.75585900      62.47070300      60.24804700      57.78173800      56.91601600      56.11962900      55.27587900      55.89746100      53.12597700      51.49023400      50.41650400      48.66503900      47.60156300      45.83886700      45.31347700      44.19482400      43.34326200      42.44433600      42.14453100      41.40673800      41.29736300      41.44238300      41.84277300      42.59668000      42.82812500      43.17480500      43.49316400      43.95068400      44.38183600      45.45654300      46.10302700      47.05078100      47.85156300      49.33789100      50.53027300      52.31298800      53.17968800      54.21093800      54.73877000      55.29345700      56.06445300      57.41796900      58.52636700      59.99414100      60.93945300      62.82617200      63.87109400      65.18652300      66.22119100      68.61816400      69.72314500      70.11767600      69.52978500      67.06347700      65.02441400      67.73535200      71.36132800      74.93359400      75.37402300      74.97021500      74.07714800      74.14209000      76.20703100      77.60546900      79.47753900      80.41015600      80.71875000      80.20263700      80.34130900      80.75537100      81.21679700      81.32861300      81.28320300      81.14550800      80.22851600      79.47949200      79.22314500      80.36132800      81.43652300      81.46826200      81.12060500      80.74072300      80.05468800      79.05273400      80.49707000      82.28222700      84.25732400      87.34570300      91.30761700      93.21728500      94.68359400      95.26123000      95.93652300      95.81933600      95.38671900      94.91113300      93.59082000      92.79785200      92.46093800      89.21630900
        44.84619100      45.63134800      46.72460900      47.23779300      48.25488300      48.96777300      49.63989300      50.17065400      50.96875000      51.05957000      51.29345700      51.28637700      50.90478500      50.75000000      50.87011700      51.13769500      51.38159200      51.43603500      51.08203100      50.91015600      50.36962900      48.60376000      44.09912100      41.29638700      41.35107400      41.64746100      43.45898400      47.33544900      53.13769500      53.38549800      57.11059600      58.05200200      59.41748000      60.83935500      62.74755900      63.85302700      66.34619100      68.13281300      69.85766600      70.55517600      71.47094700      70.22363300      70.58447300      72.25878900      73.48584000      75.01367200      75.34814500      75.57275400      75.82543900      76.74926800      77.34863300      78.45263700      79.10302700      78.92675800      78.35888700      78.08154300      76.74462900      72.93188500      73.95874000      73.59008800      72.07128900      70.17285200      67.81420900      64.30371100      62.34130900      60.69018600      60.18017600      59.36010700      58.02661100      54.45703100      54.39502000      53.09521500      52.09741200      49.58398400      47.99755900      46.48095700      45.62597700      44.43237300      43.57080100      42.48291000      42.35717800      41.76635700      41.50146500      41.75439500      41.97216800      42.38964800      42.65380900      43.15356400      43.56152300      44.13647500      44.58837900      45.48779300      46.15625000      47.25781300      48.24755900      50.13183600      51.42773400      53.25854500      54.24023400      55.45043900      56.08569300      56.96411100      57.43383800      58.14794900      58.82788100      59.96777300      60.67578100      62.22705100      63.12011700      64.46801800      65.68164100      68.53588900      70.35791000      72.65673800      73.48877000      73.62988300      69.54785200      66.16259800      69.23388700      73.98999000      76.14746100      76.78344700      75.86816400      74.56616200      75.62646500      77.47558600      79.33740200      80.24414100      81.12939500      81.32324200      81.44482400      81.42211900      82.00268600      82.12915000      82.59912100      82.42578100      81.98437500      81.07080100      79.96533200      80.11767600      80.99658200      81.00781300      81.13623000      81.14209000      81.15429700      80.11816400      80.72998000      81.76611300      83.91626000      87.83789100      91.13452100      92.57128900      94.28027300      94.76611300      95.01757800      94.38134800      93.80419900      93.40966800      92.79150400      92.22802700      91.29541000      89.84057600
        45.57031300      46.19628900      47.41845700      48.08984400      49.04711900      49.73632800      50.50805700      51.00366200      51.66308600      51.80175800      51.94433600      51.80615200      51.37451200      51.15869100      51.01562500      51.20410200      51.38671900      51.35815400      51.08081100      50.75708000      49.31884800      47.11718800      43.16943400      41.34960900      41.94238300      42.41015600      44.66601600      46.92358400      54.29223600      56.28662100      57.10058600      55.99609400      57.98535200      59.90039100      62.31884800      63.53515600      66.83593800      68.70898400      70.46997100      71.25317400      72.15747100      70.41650400      71.06250000      73.51220700      73.83642600      75.74731400      76.38574200      76.64453100      76.79077100      77.75878900      78.39306600      79.99853500      80.56689500      80.06933600      79.68847700      79.25146500      78.13671900      75.78588900      76.69262700      74.65625000      72.37939500      71.39502000      68.28125000      65.63378900      63.84814500      62.40356400      61.61621100      60.79687500      59.82739300      55.19653300      54.17944300      54.11962900      53.69482400      50.04296900      48.20800800      46.80957000      45.83105500      44.41064500      43.60546900      42.66430700      42.39135700      41.79345700      41.63403300      41.95166000      42.09960900      42.44628900      42.72753900      43.17993200      43.57763700      44.17285200      44.63842800      45.52368200      46.25878900      47.50000000      48.85913100      51.09521500      52.35791000      54.12109400      55.12988300      56.45776400      57.18579100      58.00805700      58.36425800      58.99462900      59.46948200      60.38330100      61.10595700      62.40087900      63.38867200      64.91674800      65.83447300      68.35400400      70.13354500      72.96191400      74.34472700      74.80371100      71.84619100      66.83203100      67.75683600      73.91894500      76.79296900      77.54296900      77.12841800      76.59130900      75.07861300      76.66943400      79.42041000      80.44873000      81.28466800      81.72998000      81.86743200      81.82690400      82.53686500      82.81689500      83.17529300      83.20263700      82.38623000      82.02050800      80.96923800      80.26318400      80.63232400      80.97436500      81.48413100      81.39257800      81.56738300      80.95117200      81.45703100      81.70605500      84.15966800      87.82519500      89.08862300      91.40625000      94.17260700      95.11645500      94.48681600      93.81787100      93.01074200      92.72265600      92.08642600      91.74414100      91.21362300      90.26586900
        47.29248000      47.90380900      48.70117200      49.43310500      50.47045900      51.11328100      51.85937500      52.23071300      52.80883800      52.77856400      52.71630900      52.37231400      51.85009800      51.64160200      51.40747100      51.22412100      51.19506800      51.08886700      50.52636700      49.77880900      47.12744100      44.45190400      42.04150400      42.58154300      45.16406300      43.56152300      45.17211900      47.40185500      50.03173800      50.94604500      52.56103500      54.02758800      57.93164100      60.11279300      62.52148400      63.15820300      65.92065400      68.73144500      70.93310500      71.82299800      72.95092800      71.17334000      72.04687500      75.83203100      76.26709000      78.18896500      78.97094700      78.90942400      78.70336900      79.73095700      80.84912100      81.63281300      81.76660200      81.90039100      81.72753900      81.15625000      79.99316400      78.41333000      77.12207000      74.23681600      73.14794900      71.33984400      69.62329100      67.53662100      65.55468800      63.54150400      62.51171900      61.55810500      60.75097700      56.98364300      54.77319300      54.20947300      53.79101600      50.11377000      48.74804700      47.96533200      46.32617200      44.85961900      44.13891600      43.23706100      42.89892600      42.02124000      42.02978500      42.24169900      42.23291000      42.56250000      42.93896500      43.26635700      43.59033200      44.35009800      45.04174800      45.99853500      46.69921900      48.47119100      50.38037100      52.65136700      53.93847700      55.45361300      56.54443400      57.92236300      58.74731400      59.74145500      59.99292000      60.63574200      61.08569300      61.51367200      61.91015600      63.17285200      64.18408200      65.82470700      67.04663100      69.14917000      70.74926800      73.37841800      74.71362300      76.05273400      75.64599600      70.14355500      68.24609400      71.92993200      75.99707000      77.64990200      78.68994100      78.81494100      77.55273400      76.22753900      79.41552700      80.96923800      81.86303700      82.12817400      82.30273400      82.51538100      83.44653300      83.98535200      84.03808600      84.01611300      83.60253900      83.52832000      82.63037100      81.54980500      81.24316400      81.56176800      82.20336900      82.35302700      81.84082000      81.59008800      82.04443400      82.42871100      83.42846700      84.83007800      87.74194300      91.78222700      93.93920900      93.12353500      92.70019500      92.69604500      91.00878900      90.46093800      90.18994100      90.31396500      89.99365200      89.27880900
        48.47412100      48.84082000      49.41650400      50.11621100      51.24121100      51.97949200      52.60058600      52.87597700      53.31811500      53.22827100      53.12207000      52.74194300      52.20800800      52.04931600      51.81518600      51.64550800      51.44873000      51.16894500      49.98730500      49.10913100      45.93994100      43.74658200      42.83837900      45.38867200      47.67480500      45.44482400      46.11352500      46.50903300      48.68457000      50.08935500      54.18896500      56.36694300      60.16210900      61.74658200      63.18408200      63.04150400      65.48657200      68.10546900      70.97558600      71.92724600      72.78515600      71.68164100      72.67138700      76.58203100      77.75683600      79.27343800      79.73901400      80.60205100      80.44726600      80.24951200      85.07690400      81.83252000      81.79492200      81.98046900      81.84765600      81.43920900      80.62646500      79.40429700      78.33447300      76.05419900      74.38525400      72.67675800      70.62768600      67.50634800      65.33593800      62.50659200      61.66113300      61.04199200      60.04980500      57.21972700      56.19506800      54.09619100      54.01953100      50.04443400      48.66845700      48.29101600      46.55273400      45.20898400      44.34619100      43.35839800      43.06005900      42.23584000      42.21362300      42.43554700      42.43750000      42.61425800      43.00244100      43.34985400      43.58544900      44.34204100      45.17480500      46.57617200      47.38867200      49.21093800      51.02294900      53.34423800      54.64990200      56.35253900      57.48828100      58.73217800      59.51391600      60.75854500      61.13305700      61.85302700      62.29858400      62.66845700      62.79785200      63.62548800      64.60498000      66.10693400      67.35522500      69.92138700      71.52929700      73.95385700      75.10668900      76.36816400      76.72314500      72.67968800      69.86035200      70.87085000      75.41992200      77.59814500      78.94726600      79.55859400      79.09423800      77.24414100      78.66162100      80.82275400      81.96167000      82.29785200      82.76586900      83.12548800      83.75293000      84.31665000      84.31738300      84.28759800      84.83837900      84.19433600      83.50390600      82.45263700      81.94995100      82.31469700      82.89160200      83.06958000      82.50634800      82.18408200      82.60449200      82.78027300      83.27099600      84.03418000      86.69043000      89.54858400      91.98437500      90.11474600      91.12744100      91.26635700      89.86621100      89.00683600      89.34423800      89.51220700      89.17919900      88.16626000
        49.80761700      50.09472700      50.71777300      51.15625000      51.96875000      52.66308600      53.26855500      53.42822300      53.65429700      53.62402300      53.66796900      53.35253900      52.86230500      52.61621100      52.30224600      52.14062500      51.51318400      51.37402300      49.95898400      48.98095700      44.76953100      44.69384800      44.41894500      47.35644500      49.22949200      47.66015600      49.62841800      50.03955100      49.68701200      51.61328100      58.17968800      59.97168000      61.64941400      62.00585900      62.65429700      63.88476600      65.95312500      68.03320300      70.33789100      71.50488300      72.64746100      72.60839800      72.86425800      77.33984400      78.66601600      79.72998000      80.16699200      81.22119100      81.37695300      80.63378900      82.56005900      82.47168000      82.15039100      82.12011700      82.04687500      81.71386700      81.00390600      79.11914100      78.14648400      76.40673800      74.98046900      71.49902300      69.06152300      66.01074200      64.25488300      63.52441400      62.88867200      60.65087900      59.38574200      57.94726600      56.72753900      54.29980500      53.83496100      50.18066400      48.73925800      47.64648400      46.50683600      45.33252000      44.38964800      43.18164100      42.84326200      42.39697300      42.40185500      42.53906300      42.66796900      42.81250000      43.22070300      43.42431600      43.68457000      44.42529300      45.18261700      47.04003900      48.38623000      50.57617200      52.20605500      54.37109400      55.78710900      57.86084000      59.35644500      60.60009800      61.26269500      62.37109400      62.87451200      63.90820300      64.67675800      64.78125000      64.71093800      65.41503900      65.84765600      67.18359400      68.15283200      70.45849600      72.00146500      75.13476600      76.07666000      77.33007800      77.95507800      75.86035200      72.21777300      70.60302700      74.48046900      77.29296900      78.66894500      79.81201200      80.52148400      79.87109400      78.34765600      79.80175800      82.00537100      82.69043000      83.55029300      84.03710900      84.24121100      84.66943400      84.46875000      84.47949200      85.22558600      84.93847700      84.88623000      84.26269500      83.27246100      83.62060500      83.79736300      84.09082000      83.63867200      83.20654300      83.66503900      83.73730500      83.29150400      83.35058600      84.02880900      85.28027300      87.04443400      87.80712900      89.39062500      89.19091800      87.96972700      87.09863300      87.30175800      87.75293000      87.26953100      86.39013700
        50.44433600      50.81152300      51.43066400      51.75683600      52.35791000      52.81982400      53.23632800      53.44458000      53.73486300      53.68505900      53.67627000      53.52319300      53.34375000      53.13183600      52.70703100      52.53710900      51.27099600      51.15722700      50.56054700      49.88305700      45.16552700      44.62011700      45.87255900      47.93652300      49.47705100      48.81054700      50.63110400      51.78564500      53.93676800      52.81591800      58.82959000      59.70190400      60.45019500      61.24658200      63.79248000      64.85546900      66.62597700      68.18505900      70.82763700      72.38281300      73.64062500      73.30273400      73.72363300      77.62060500      78.95117200      79.95996100      80.38745100      81.49829100      82.37548800      81.02807600      82.89599600      84.38623000      82.63330100      82.25146500      82.13916000      81.89111300      81.17285200      78.43530300      75.45507800      73.94897500      72.41967800      69.74023400      67.83032200      66.80468800      67.38378900      66.71264600      65.69677700      61.91210900      60.33007800      59.03076200      56.75854500      54.31005900      53.37768600      50.31835900      49.04199200      47.68798800      46.45947300      45.22412100      44.53857400      43.52880900      43.12158200      42.54174800      42.42822300      42.38378900      42.46679700      42.78418000      43.14550800      43.26001000      43.45752000      44.28418000      45.19018600      47.25000000      48.71191400      51.25488300      53.00512700      55.02148400      56.39892600      58.20922900      59.77685500      61.65771500      62.71655300      64.13818400      64.61596700      65.32861300      66.12988300      67.23095700      67.83837900      67.49072300      67.83544900      68.33227500      68.98071300      70.63793900      72.24389600      75.59765600      77.09448200      78.18603500      78.78076200      77.76464800      73.85253900      71.10839800      74.42871100      77.78027300      79.27880900      80.28198200      81.37890600      81.29687500      79.74267600      79.50976600      81.92797900      83.06079100      84.30371100      84.57543900      84.46875000      84.51342800      84.71386700      84.75097700      85.28125000      85.59082000      85.55249000      85.07080100      83.83715800      83.84936500      84.38525400      84.75366200      84.17871100      83.77880900      84.25244100      84.80078100      83.87573200      83.39550800      83.38964800      84.00146500      85.62109400      87.08667000      88.01953100      87.55371100      86.49414100      85.93945300      86.10009800      86.52783200      86.17797900      85.08447300
        50.78906300      51.46093800      51.89843800      52.13183600      52.60498000      52.88378900      53.14648400      53.36816400      53.37939500      53.30908200      53.51855500      53.64941400      53.71093800      53.37402300      52.76025400      52.67382800      51.29785200      51.25146500      50.48046900      49.66162100      44.65625000      44.62011700      47.05664100      48.77441400      50.13867200      50.00683600      51.82128900      52.91748000      54.77832000      56.12060500      57.73486300      59.28027300      61.04101600      61.97753900      63.46093800      64.51367200      66.43310500      68.61230500      71.42724600      72.96923800      74.04882800      73.41601600      75.09472700      78.27832000      79.27343800      81.33349600      80.52294900      81.43505900      81.73144500      81.97460900      82.87890600      82.96582000      82.64355500      82.32128900      82.05078100      81.73046900      81.23730500      79.78271500      78.17431600      76.74707000      75.71923800      74.18847700      71.96826200      71.15332000      68.67187500      65.14013700      62.44824200      60.95996100      60.35791000      57.91748000      56.61132800      54.33496100      52.85595700      51.01269500      49.08300800      47.08691400      46.31543000      45.50781300      44.62988300      43.61474600      43.20996100      42.72021500      42.46337900      42.18066400      41.91308600      42.43554700      43.04785200      43.55566400      44.03710900      44.99267600      45.99218800      48.02636700      49.59326200      52.62207000      54.68310500      56.92773400      58.36718800      59.37402300      60.60253900      62.59472700      64.18164100      66.64892600      67.27246100      67.39550800      67.80517600      68.65820300      69.27734400      69.84765600      70.81152300      72.77197300      72.63378900      71.88769500      72.90722700      75.66699200      77.81591800      79.42480500      79.90527300      79.17578100      75.58789100      72.01660200      74.86523400      78.79541000      80.34179700      81.26953100      82.17187500      82.22558600      81.15527300      80.46484400      80.87060500      82.32275400      84.28076200      84.66845700      84.86035200      84.87255900      85.01171900      85.06347700      85.41015600      85.94921900      85.85791000      85.31835900      84.43896500      84.64355500      85.42431600      85.54345700      85.41113300      85.11718800      85.18164100      85.33398400      84.64209000      83.74121100      83.61767600      83.62255900      84.50293000      85.37353500      85.87890600      85.99267600      84.52050800      84.22558600      84.54882800      85.03710900      84.72460900      83.85253900
        51.03515600      51.49609400      52.12402300      52.50976600      52.75927700      52.95019500      53.10009800      53.17431600      53.02148400      52.99658200      53.32714800      53.54785200      53.56347700      53.17871100      52.49121100      52.07617200      51.36035200      51.17822300      49.58984400      48.38867200      44.62011700      44.61425800      48.82714800      50.04589800      51.84082000      50.68164100      52.16699200      53.33007800      55.21044900      57.03369100      58.69970700      59.88720700      61.63671900      62.44824200      63.77636700      64.93066400      66.67822300      68.77636700      71.27294900      72.70068400      73.62793000      73.36230500      76.05371100      78.39550800      79.19238300      80.00537100      80.17675800      81.13623000      81.48632800      81.56982400      82.45166000      83.09668000      82.58398400      82.33691400      82.03125000      81.69970700      81.33593800      80.53955100      80.14209000      78.90283200      77.76269500      75.70996100      70.45996100      65.51562500      63.94824200      61.66845700      60.95996100      60.96044900      60.67187500      58.27343800      57.06103500      54.54492200      52.73877000      50.92773400      49.53906300      47.42773400      46.47851600      45.49951200      44.59326200      43.56103500      43.22314500      42.71142600      42.45263700      42.02832000      41.80175800      42.42089800      43.20800800      43.80517600      44.47363300      45.72265600      46.78418000      48.81787100      50.36621100      53.05078100      55.00537100      57.29589800      58.71582000      60.52294900      61.91015600      63.45459000      64.71435500      67.83935500      68.63183600      68.70312500      69.00537100      69.67382800      70.35449200      71.07324200      72.04003900      74.34326200      75.04492200      74.22412100      73.99511700      75.85253900      78.13818400      80.29199200      80.81543000      80.37304700      77.17187500      72.77832000      75.20507800      78.80419900      80.79882800      81.74951200      82.66406300      82.85449200      82.43847700      82.11718800      81.05078100      81.26025400      83.17285200      84.24511700      85.07275400      85.14843800      85.26269500      85.37500000      85.45019500      85.69531300      85.82763700      85.37207000      84.93164100      85.17724600      85.82324200      85.92041000      85.74023400      85.55322300      85.16308600      85.15527300      84.55957000      83.94921900      83.37793000      83.11035200      83.47900400      83.97460900      84.48437500      84.84716800      83.86523400      83.44921900      83.65527300      83.80371100      83.60791000      83.06884800