# File generated by Flopy version 3.3.5 on 10/01/2024 at 12:40:03.
BEGIN OPTIONS
  PRINT_OPTION  none
  COMPLEXITY  moderate
END OPTIONS

