# File generated by Flopy version 3.3.5 on 10/01/2024 at 12:40:04.
BEGIN OPTIONS
  SAVE_FLOWS
END OPTIONS

BEGIN GRIDDATA
  icelltype  LAYERED
    CONSTANT  0
    CONSTANT  0
    CONSTANT  0
    CONSTANT  0
  k  LAYERED
    CONSTANT       0.43200000
    CONSTANT       0.43200000
    CONSTANT       0.43200000
    CONSTANT       0.43200000
  k33  LAYERED
    CONSTANT       0.43200000
    CONSTANT       0.43200000
    CONSTANT       0.43200000
    CONSTANT       0.43200000
END GRIDDATA

