# File generated by Flopy version 3.3.5 on 10/01/2024 at 12:40:04.
BEGIN OPTIONS
  PRINT_FLOWS
  SAVE_FLOWS
END OPTIONS

BEGIN DIMENSIONS
  MAXBOUND  323
END DIMENSIONS

BEGIN PERIOD  1
  1 106 58      33.29272500       0.08640000
  1 104 45      31.88769500       0.08640000
  1 105 44      31.38378900       0.08640000
  1 105 45      31.58300800       0.08640000
  1 106 44      31.23828100       0.08640000
  1 105 100      50.60107400       0.08640000
  1 105 101      51.70312500       0.08640000
  1 105 109      56.83007800       0.08640000
  1 105 110      56.56982400       0.08640000
  1 105 111      57.60009800       0.08640000
  1 106 101      52.41674800       0.08640000
  1 106 102      51.35864300       0.08640000
  1 106 103      51.98559600       0.08640000
  1 106 104      52.91308600       0.08640000
  1 106 107      55.30859400       0.08640000
  1 106 108      56.77002000       0.08640000
  1 106 109      57.55322300       0.08640000
  1 106 111      60.39868200       0.08640000
  1 106 112      60.20629900       0.08640000
  1 106 113      60.76586900       0.08640000
  1 106 114      59.70996100       0.08640000
  1 106 115      59.27075200       0.08640000
  1 107 104      53.17480500       0.08640000
  1 107 105      53.47143600       0.08640000
  1 107 106      55.44628900       0.08640000
  1 107 107      56.06884800       0.08640000
  1 107 115      60.03271500       0.08640000
  1 107 116      59.84668000       0.08640000
  1 107 117      60.91015600       0.08640000
  1 108 117      60.19921900       0.08640000
  1 108 118      60.54003900       0.08640000
  1 109 118      60.68359400       0.08640000
  1 109 119      60.34521500       0.08640000
  1 109 120      60.84252900       0.08640000
  1 110 120      61.78930700       0.08640000
  1 110 121      60.70605500       0.08640000
  1 111 121      61.35253900       0.08640000
  1 111 122      60.91528300       0.08640000
  1 111 123      61.06054700       0.08640000
  1 112 123      61.54492200       0.08640000
  1 112 124      61.57763700       0.08640000
  1 112 125      61.41015600       0.08640000
  1 113 125      61.76074200       0.08640000
  1 113 126      60.86523400       0.08640000
  1 113 127      62.05371100       0.08640000
  1 114 127      61.72460900       0.08640000
  1 114 128      62.08691400       0.08640000
  1 114 129      62.54931600       0.08640000
  1 115 129      62.54345700       0.08640000
  1 115 130      63.10986300       0.08640000
  1 115 131      64.15771500       0.08640000
  1 115 132      64.12207000       0.08640000
  1 115 133      65.18652300       0.08640000
  1 115 134      65.26220700       0.08640000
  1 115 135      65.37793000       0.08640000
  1 115 136      65.77636700       0.08640000
  1 115 137      66.51464800       0.08640000
  1 115 138      66.73144500       0.08640000
  1 115 139      67.21093800       0.08640000
  1 88 44      30.93994100       0.08640000
  1 89 44      30.87402300       0.08640000
  1 90 43      30.62793000       0.08640000
  1 90 44      30.78613300       0.08640000
  1 91 43      30.38720700       0.08640000
  1 92 43      30.42968800       0.08640000
  1 93 43      30.68359400       0.08640000
  1 94 42      30.60888700       0.08640000
  1 94 43      31.04638700       0.08640000
  1 108 70      35.47729500       0.08640000
  1 108 71      35.73657200       0.08640000
  1 108 72      36.08593800       0.08640000
  1 108 73      36.24731400       0.08640000
  1 108 74      36.59423800       0.08640000
  1 108 75      36.81396500       0.08640000
  1 108 76      37.15673800       0.08640000
  1 109 76      40.76025400       0.08640000
  1 109 77      39.46484400       0.08640000
  1 109 78      38.68310500       0.08640000
  1 109 79      37.97143600       0.08640000
  1 106 59      33.17211900       0.08640000
  1 107 59      33.76660200       0.08640000
  1 107 60      33.39477500       0.08640000
  1 108 61      33.55639600       0.08640000
  1 108 62      34.40283200       0.08640000
  1 108 69      35.09277300       0.08640000
  1 109 62      33.70507800       0.08640000
  1 109 63      33.86962900       0.08640000
  1 109 69      35.55322300       0.08640000
  1 110 63      34.05297900       0.08640000
  1 110 64      34.00927700       0.08640000
  1 110 65      34.33593800       0.08640000
  1 110 68      35.92895500       0.08640000
  1 110 69      37.93457000       0.08640000
  1 111 65      34.59863300       0.08640000
  1 111 66      34.57202100       0.08640000
  1 111 67      34.68554700       0.08640000
  1 111 68      37.41333000       0.08640000
  1 87 41      30.92700200       0.08640000
  1 87 42      30.75341800       0.08640000
  1 88 42      31.06347700       0.08640000
  1 88 43      30.71533200       0.08640000
  1 104 46      31.76660200       0.08640000
  1 95 42      30.77539100       0.08640000
  1 96 42      30.67919900       0.08640000
  1 97 42      30.71093800       0.08640000
  1 97 43      31.11132800       0.08640000
  1 98 43      30.95214800       0.08640000
  1 99 43      31.18066400       0.08640000
  1 99 44      31.46582000       0.08640000
  1 100 44      31.51367200       0.08640000
  1 101 44      31.00097700       0.08640000
  1 101 45      31.48632800       0.08640000
  1 102 45      31.62695300       0.08640000
  1 103 45      31.28906300       0.08640000
  1 102 96      47.04589800       0.08640000
  1 103 96      49.34082000       0.08640000
  1 103 97      47.45507800       0.08640000
  1 103 98      48.90722700       0.08640000
  1 104 98      49.26416000       0.08640000
  1 104 99      49.02148400       0.08640000
  1 105 99      49.45117200       0.08640000
  1 106 48      32.25659200       0.08640000
  1 106 51      32.45312500       0.08640000
  1 106 52      32.43994100       0.08640000
  1 106 53      32.58593800       0.08640000
  1 106 54      33.01074200       0.08640000
  1 106 55      33.44238300       0.08640000
  1 106 56      33.55786100       0.08640000
  1 106 57      33.39062500       0.08640000
  1 107 48      32.79443400       0.08640000
  1 107 49      33.17456100       0.08640000
  1 107 50      33.46093800       0.08640000
  1 107 51      33.08667000       0.08640000
  1 88 45      30.98242200       0.08640000
  1 88 46      31.31005900       0.08640000
  1 88 47      33.16650400       0.08640000
  1 88 48      37.52783200       0.08640000
  1 109 80      38.52392600       0.08640000
  1 110 80      38.78173800       0.08640000
  1 110 81      39.10034200       0.08640000
  1 111 81      39.08422900       0.08640000
  1 111 82      40.91601600       0.08640000
  1 112 82      39.71435500       0.08640000
  1 112 83      40.43505900       0.08640000
  1 113 83      40.35546900       0.08640000
  1 113 84      41.70214800       0.08640000
  1 114 84      41.17968800       0.08640000
  1 114 85      41.06738300       0.08640000
  1 115 85      41.61718800       0.08640000
  1 115 86      42.32812500       0.08640000
  1 116 86      42.86962900       0.08640000
  1 116 87      42.52197300       0.08640000
  1 65 118      65.83642600       0.08640000
  1 65 119      66.62548800       0.08640000
  1 65 120      66.55981400       0.08640000
  1 66 117      65.30810500       0.08640000
  1 66 118      67.18115200       0.08640000
  1 67 116      64.86328100       0.08640000
  1 67 117      65.95214800       0.08640000
  1 68 116      65.41503900       0.08640000
  1 69 115      64.13891600       0.08640000
  1 69 116      65.79248000       0.08640000
  1 70 115      65.07910200       0.08640000
  1 71 113      63.23877000       0.08640000
  1 71 114      63.44873000       0.08640000
  1 71 115      64.83349600       0.08640000
  1 72 105      61.06250000       0.08640000
  1 72 106      61.66210900       0.08640000
  1 72 107      61.64160200       0.08640000
  1 72 108      62.09082000       0.08640000
  1 72 109      62.15039100       0.08640000
  1 72 110      62.10009800       0.08640000
  1 72 111      62.28759800       0.08640000
  1 72 112      62.71728500       0.08640000
  1 72 113      62.84130900       0.08640000
  1 73 103      60.14990200       0.08640000
  1 73 104      60.76660200       0.08640000
  1 73 105      62.50732400       0.08640000
  1 74 102      59.56201200       0.08640000
  1 74 103      59.88916000       0.08640000
  1 75 102      59.85449200       0.08640000
  1 75 103      59.42627000       0.08640000
  1 76 103      59.25000000       0.08640000
  1 77 103      59.25854500       0.08640000
  1 77 104      59.32714800       0.08640000
  1 78 104      58.92627000       0.08640000
  1 115 140      67.67285200       0.08640000
  1 115 141      67.65576200       0.08640000
  1 116 141      67.75048800       0.08640000
  1 116 142      67.46899400       0.08640000
  1 116 143      67.43725600       0.08640000
  1 116 144      67.71069300       0.08640000
  1 78 50      32.29296900       0.08640000
  1 78 51      33.44702100       0.08640000
  1 79 50      33.05542000       0.08640000
  1 80 49      31.81591800       0.08640000
  1 80 50      33.32959000       0.08640000
  1 81 48      31.59326200       0.08640000
  1 81 49      32.52002000       0.08640000
  1 82 48      32.39941400       0.08640000
  1 83 47      31.29785200       0.08640000
  1 83 48      32.95898400       0.08640000
  1 84 46      31.11572300       0.08640000
  1 84 47      31.94384800       0.08640000
  1 85 46      31.71142600       0.08640000
  1 86 45      30.88525400       0.08640000
  1 86 46      31.94628900       0.08640000
  1 87 45      31.18310500       0.08640000
  1 93 29      29.74511700       0.08640000
  1 93 30      29.55224600       0.08640000
  1 93 31      30.42919900       0.08640000
  1 93 32      30.66845700       0.08640000
  1 93 33      30.41113300       0.08640000
  1 94 28      29.59448200       0.08640000
  1 94 29      29.58886700       0.08640000
  1 94 33      30.16894500       0.08640000
  1 94 34      29.94091800       0.08640000
  1 94 35      29.99658200       0.08640000
  1 94 36      30.03564500       0.08640000
  1 94 37      30.06176800       0.08640000
  1 94 38      30.07519500       0.08640000
  1 94 39      30.16650400       0.08640000
  1 94 40      30.16162100       0.08640000
  1 94 41      30.27783200       0.08640000
  1 108 81      38.80249000       0.08640000
  1 109 81      42.37670900       0.08640000
  1 102 90      43.82568400       0.08640000
  1 102 91      44.55517600       0.08640000
  1 102 92      44.91162100       0.08640000
  1 102 93      45.27392600       0.08640000
  1 102 94      46.03222700       0.08640000
  1 102 95      46.89306600       0.08640000
  1 103 89      43.11328100       0.08640000
  1 103 90      44.34375000       0.08640000
  1 104 88      42.09912100       0.08640000
  1 104 89      42.79394500       0.08640000
  1 105 87      41.56445300       0.08640000
  1 105 88      41.89843800       0.08640000
  1 106 87      41.20898400       0.08640000
  1 107 86      41.09668000       0.08640000
  1 107 87      42.51367200       0.08640000
  1 108 82      38.97387700       0.08640000
  1 108 83      39.28784200       0.08640000
  1 108 84      40.26709000       0.08640000
  1 108 85      41.79638700       0.08640000
  1 108 86      42.69628900       0.08640000
  1 95 27      28.95849600       0.08640000
  1 95 28      29.31201200       0.08640000
  1 96 26      28.64453100       0.08640000
  1 96 27      28.89624000       0.08640000
  1 97 16      27.13476600       0.08640000
  1 97 17      27.23803700       0.08640000
  1 97 26      28.35986300       0.08640000
  1 98 13      26.29199200       0.08640000
  1 98 14      26.22656300       0.08640000
  1 98 15      26.43115200       0.08640000
  1 98 16      26.60644500       0.08640000
  1 98 17      26.80395500       0.08640000
  1 98 18      26.99292000       0.08640000
  1 98 19      27.21386700       0.08640000
  1 98 20      27.27417000       0.08640000
  1 98 21      27.44433600       0.08640000
  1 98 22      27.63256800       0.08640000
  1 98 23      27.77978500       0.08640000
  1 98 24      27.96582000       0.08640000
  1 98 25      28.23486300       0.08640000
  1 98 26      28.41015600       0.08640000
  1 99 10      26.05078100       0.08640000
  1 99 11      25.85156300       0.08640000
  1 99 12      25.98754900       0.08640000
  1 99 13      26.18994100       0.08640000
  1 99 21      27.63818400       0.08640000
  1 99 22      27.69946300       0.08640000
  1 99 23      27.99023400       0.08640000
  1 100 9      25.58398400       0.08640000
  1 100 10      25.66894500       0.08640000
  1 78 102      61.20312500       0.08640000
  1 78 103      59.92895500       0.08640000
  1 79 99      63.55419900       0.08640000
  1 79 100      63.04272500       0.08640000
  1 79 101      62.60327100       0.08640000
  1 79 102      61.31787100       0.08640000
  1 105 46      31.67236300       0.08640000
  1 105 47      31.91601600       0.08640000
  1 106 47      31.84350600       0.08640000
  1 107 61      34.76757800       0.08640000
  1 79 104      58.73535200       0.08640000
  1 80 104      58.48144500       0.08640000
  1 81 104      58.15820300       0.08640000
  1 82 104      59.58691400       0.08640000
  1 82 105      58.10644500       0.08640000
  1 83 105      58.07128900       0.08640000
  1 83 106      59.00195300       0.08640000
  1 84 106      57.33691400       0.08640000
  1 85 106      57.48730500       0.08640000
  1 85 107      57.20605500       0.08640000
  1 86 107      56.34326200       0.08640000
  1 87 107      56.12402300       0.08640000
  1 88 106      55.59130900       0.08640000
  1 88 107      57.88623000       0.08640000
  1 89 106      56.20361300       0.08640000
  1 90 103      53.86914100       0.08640000
  1 90 104      56.63574200       0.08640000
  1 90 105      58.01709000       0.08640000
  1 90 106      60.69726600       0.08640000
  1 91 103      53.73168900       0.08640000
  1 92 103      54.14453100       0.08640000
  1 93 102      52.57128900       0.08640000
  1 93 103      53.50976600       0.08640000
  1 94 102      51.65380900       0.08640000
  1 95 102      51.54638700       0.08640000
  1 96 101      50.33276400       0.08640000
  1 96 102      51.22045900       0.08640000
  1 97 101      49.65234400       0.08640000
  1 98 100      48.86425800       0.08640000
  1 98 101      49.92919900       0.08640000
  1 99 99      48.36425800       0.08640000
  1 99 100      48.66113300       0.08640000
  1 100 98      47.60205100       0.08640000
  1 100 99      49.25585900       0.08640000
  1 101 96      46.84716800       0.08640000
  1 101 97      47.10449200       0.08640000
  1 101 98      49.56811500       0.08640000  

END PERIOD  1

