# File generated by Flopy version 3.3.5 on 10/01/2024 at 12:40:04.
BEGIN OPTIONS
  FIXED_CELL
  AUXILIARY  rchlayer  rmult
  AUXMULTNAME  rmult
  PRINT_FLOWS
  SAVE_FLOWS
END OPTIONS

BEGIN DIMENSIONS
  MAXBOUND  25272
END DIMENSIONS

BEGIN PERIOD  1
  2 1 1  9.58000000E-04       2.00000000       1.00000000
  2 1 2  9.58000000E-04       2.00000000       1.00000000
  2 1 3  9.58000000E-04       2.00000000       1.00000000
  2 1 4  9.58000000E-04       2.00000000       1.00000000
  2 1 5  9.58000000E-04       2.00000000       1.00000000
  2 1 6  9.58000000E-04       2.00000000       1.00000000
  2 1 7  9.58000000E-04       2.00000000       1.00000000
  2 1 8  9.58000000E-04       2.00000000       1.00000000
  2 1 9  9.58000000E-04       2.00000000       1.00000000
  2 1 10  9.58000000E-04       2.00000000       1.00000000
  2 1 11  9.58000000E-04       2.00000000       1.00000000
  2 1 12  9.58000000E-04       2.00000000       1.00000000
  2 1 13  9.58000000E-04       2.00000000       1.00000000
  2 1 14  9.58000000E-04       2.00000000       1.00000000
  2 1 15  9.58000000E-04       2.00000000       1.00000000
  2 1 16  9.58000000E-04       2.00000000       1.00000000
  2 1 17  9.58000000E-04       2.00000000       1.00000000
  2 1 18  9.58000000E-04       2.00000000       1.00000000
  2 1 19  9.58000000E-04       2.00000000       1.00000000
  2 1 20  9.58000000E-04       2.00000000       1.00000000
  2 1 21  9.58000000E-04       2.00000000       1.00000000
  2 1 22  9.58000000E-04       2.00000000       1.00000000
  2 1 23  9.58000000E-04       2.00000000       1.00000000
  2 1 24  9.58000000E-04       2.00000000       1.00000000
  2 1 25  9.58000000E-04       2.00000000       1.00000000
  2 1 26  9.58000000E-04       2.00000000       1.00000000
  2 1 27  9.58000000E-04       2.00000000       1.00000000
  2 1 28  9.58000000E-04       2.00000000       1.00000000
  2 1 29  9.58000000E-04       2.00000000       1.00000000
  2 1 30  9.58000000E-04       2.00000000       1.00000000
  2 1 31  9.58000000E-04       2.00000000       1.00000000
  2 1 32  9.58000000E-04       2.00000000       1.00000000
  2 1 33  9.58000000E-04       2.00000000       1.00000000
  2 1 34  9.58000000E-04       2.00000000       1.00000000
  2 1 35  9.58000000E-04       2.00000000       1.00000000
  2 1 36  9.58000000E-04       2.00000000       1.00000000
  2 1 37  9.58000000E-04       2.00000000       1.00000000
  2 1 38  9.58000000E-04       2.00000000       1.00000000
  2 1 39  9.58000000E-04       2.00000000       1.00000000
  2 1 40  9.58000000E-04       2.00000000       1.00000000
  2 1 41  9.58000000E-04       2.00000000       1.00000000
  2 1 42  9.58000000E-04       2.00000000       1.00000000
  2 1 43  9.58000000E-04       2.00000000       1.00000000
  2 1 44  9.58000000E-04       2.00000000       1.00000000
  2 1 45  9.58000000E-04       2.00000000       1.00000000
  2 1 46  9.58000000E-04       2.00000000       1.00000000
  2 1 47  9.58000000E-04       2.00000000       1.00000000
  2 1 48  9.58000000E-04       2.00000000       1.00000000
  2 1 49  9.58000000E-04       2.00000000       1.00000000
  2 1 50  9.58000000E-04       2.00000000       1.00000000
  2 1 51  9.58000000E-04       2.00000000       1.00000000
  2 1 52  9.58000000E-04       2.00000000       1.00000000
  2 1 53  9.58000000E-04       2.00000000       1.00000000
  2 1 54  9.58000000E-04       2.00000000       1.00000000
  2 1 55  9.58000000E-04       2.00000000       1.00000000
  2 1 56  9.58000000E-04       2.00000000       1.00000000
  2 1 57  9.58000000E-04       2.00000000       1.00000000
  2 1 58  9.58000000E-04       2.00000000       1.00000000
  2 1 59  9.58000000E-04       2.00000000       1.00000000
  2 1 60  9.58000000E-04       2.00000000       1.00000000
  2 1 61  9.58000000E-04       2.00000000       1.00000000
  2 1 62  9.58000000E-04       2.00000000       1.00000000
  2 1 63  9.58000000E-04       2.00000000       1.00000000
  2 1 64  9.58000000E-04       2.00000000       1.00000000
  2 1 65  9.58000000E-04       2.00000000       1.00000000
  2 1 66  9.58000000E-04       2.00000000       1.00000000
  2 1 67  9.58000000E-04       2.00000000       1.00000000
  2 1 68  9.58000000E-04       2.00000000       1.00000000
  2 1 69  9.58000000E-04       2.00000000       1.00000000
  2 1 70  9.58000000E-04       2.00000000       1.00000000
  2 1 71  9.58000000E-04       2.00000000       1.00000000
  2 1 72  9.58000000E-04       2.00000000       1.00000000
  2 1 73  9.58000000E-04       2.00000000       1.00000000
  2 1 74  9.58000000E-04       2.00000000       1.00000000
  2 1 75  9.58000000E-04       2.00000000       1.00000000
  2 1 76  9.58000000E-04       2.00000000       1.00000000
  2 1 77  9.58000000E-04       2.00000000       1.00000000
  2 1 78  9.58000000E-04       2.00000000       1.00000000
  2 1 79  9.58000000E-04       2.00000000       1.00000000
  2 1 80  9.58000000E-04       2.00000000       1.00000000
  2 1 81  9.58000000E-04       2.00000000       1.00000000
  2 1 82  9.58000000E-04       2.00000000       1.00000000
  2 1 83  9.58000000E-04       2.00000000       1.00000000
  2 1 84  9.58000000E-04       2.00000000       1.00000000
  2 1 85  9.58000000E-04       2.00000000       1.00000000
  2 1 86  9.58000000E-04       2.00000000       1.00000000
  2 1 87  9.58000000E-04       2.00000000       1.00000000
  2 1 88  9.58000000E-04       2.00000000       1.00000000
  2 1 89  9.58000000E-04       2.00000000       1.00000000
  2 1 90  9.58000000E-04       2.00000000       1.00000000
  2 1 91  9.58000000E-04       2.00000000       1.00000000
  2 1 92  9.58000000E-04       2.00000000       1.00000000
  2 1 93  9.58000000E-04       2.00000000       1.00000000
  2 1 94  9.58000000E-04       2.00000000       1.00000000
  2 1 95  9.58000000E-04       2.00000000       1.00000000
  2 1 96  9.58000000E-04       2.00000000       1.00000000
  2 1 97  9.58000000E-04       2.00000000       1.00000000
  2 1 98  9.58000000E-04       2.00000000       1.00000000
  2 1 99  9.58000000E-04       2.00000000       1.00000000
  2 1 100  9.58000000E-04       2.00000000       1.00000000
  2 1 101  9.58000000E-04       2.00000000       1.00000000
  2 1 102  9.58000000E-04       2.00000000       1.00000000
  2 1 103  9.58000000E-04       2.00000000       1.00000000
  2 1 104  9.58000000E-04       2.00000000       1.00000000
  2 1 105  9.58000000E-04       2.00000000       1.00000000
  2 1 106  9.58000000E-04       2.00000000       1.00000000
  2 1 107  9.58000000E-04       2.00000000       1.00000000
  2 1 108  9.58000000E-04       2.00000000       1.00000000
  2 1 109  9.58000000E-04       2.00000000       1.00000000
  2 1 110  9.58000000E-04       2.00000000       1.00000000
  2 1 111  9.58000000E-04       2.00000000       1.00000000
  2 1 112  9.58000000E-04       2.00000000       1.00000000
  2 1 113  9.58000000E-04       2.00000000       1.00000000
  2 1 114  9.58000000E-04       2.00000000       1.00000000
  2 1 115  9.58000000E-04       2.00000000       1.00000000
  2 1 116  9.58000000E-04       2.00000000       1.00000000
  2 1 117  9.58000000E-04       2.00000000       1.00000000
  2 1 118  9.58000000E-04       2.00000000       1.00000000
  2 1 119  9.58000000E-04       2.00000000       1.00000000
  2 1 120  9.58000000E-04       2.00000000       1.00000000
  2 1 121  9.58000000E-04       2.00000000       1.00000000
  2 1 122  9.58000000E-04       2.00000000       1.00000000
  2 1 123  9.58000000E-04       2.00000000       1.00000000
  2 1 124  9.58000000E-04       2.00000000       1.00000000
  2 1 125  9.58000000E-04       2.00000000       1.00000000
  2 1 126  9.58000000E-04       2.00000000       1.00000000
  2 1 127  9.58000000E-04       2.00000000       1.00000000
  2 1 128  9.58000000E-04       2.00000000       1.00000000
  2 1 129  9.58000000E-04       2.00000000       1.00000000
  2 1 130  9.58000000E-04       2.00000000       1.00000000
  2 1 131  9.58000000E-04       2.00000000       1.00000000
  2 1 132  9.58000000E-04       2.00000000       1.00000000
  2 1 133  9.58000000E-04       2.00000000       1.00000000
  2 1 134  9.58000000E-04       2.00000000       1.00000000
  2 1 135  9.58000000E-04       2.00000000       1.00000000
  2 1 136  9.58000000E-04       2.00000000       1.00000000
  2 1 137  9.58000000E-04       2.00000000       1.00000000
  2 1 138  9.58000000E-04       2.00000000       1.00000000
  2 1 139  9.58000000E-04       2.00000000       1.00000000
  2 1 140  9.58000000E-04       2.00000000       1.00000000
  2 1 141  9.58000000E-04       2.00000000       1.00000000
  2 1 142  9.58000000E-04       2.00000000       1.00000000
  2 1 143  9.58000000E-04       2.00000000       1.00000000
  2 1 144  9.58000000E-04       2.00000000       1.00000000
  2 1 145  9.58000000E-04       2.00000000       1.00000000
  2 1 146  9.58000000E-04       2.00000000       1.00000000
  2 1 147  9.58000000E-04       2.00000000       1.00000000
  2 1 148  9.58000000E-04       2.00000000       1.00000000
  2 1 149  9.58000000E-04       2.00000000       1.00000000
  2 1 150  9.58000000E-04       2.00000000       1.00000000
  2 1 151  9.58000000E-04       2.00000000       1.00000000
  2 1 152  9.58000000E-04       2.00000000       1.00000000
  2 1 153  9.58000000E-04       2.00000000       1.00000000
  2 1 154  9.58000000E-04       2.00000000       1.00000000
  2 1 155  9.58000000E-04       2.00000000       1.00000000
  2 1 156  9.58000000E-04       2.00000000       1.00000000
  2 1 157  9.58000000E-04       2.00000000       1.00000000
  2 1 158  9.58000000E-04       2.00000000       1.00000000
  2 1 159  9.58000000E-04       2.00000000       1.00000000
  2 1 160  9.58000000E-04       2.00000000       1.00000000
  2 1 161  9.58000000E-04       2.00000000       1.00000000
  2 1 162  9.58000000E-04       2.00000000       1.00000000
  2 2 1  9.58000000E-04       2.00000000       1.00000000
  2 2 2  9.58000000E-04       2.00000000       1.00000000
  2 2 3  9.58000000E-04       2.00000000       1.00000000
  2 2 4  9.58000000E-04       2.00000000       1.00000000
  2 2 5  9.58000000E-04       2.00000000       1.00000000
  2 2 6  9.58000000E-04       2.00000000       1.00000000
  2 2 7  9.58000000E-04       2.00000000       1.00000000
  2 2 8  9.58000000E-04       2.00000000       1.00000000
  2 2 9  9.58000000E-04       2.00000000       1.00000000
  2 2 10  9.58000000E-04       2.00000000       1.00000000
  2 2 11  9.58000000E-04       2.00000000       1.00000000
  2 2 12  9.58000000E-04       2.00000000       1.00000000
  2 2 13  9.58000000E-04       2.00000000       1.00000000
  2 2 14  9.58000000E-04       2.00000000       1.00000000
  2 2 15  9.58000000E-04       2.00000000       1.00000000
  2 2 16  9.58000000E-04       2.00000000       1.00000000
  2 2 17  9.58000000E-04       2.00000000       1.00000000
  2 2 18  9.58000000E-04       2.00000000       1.00000000
  2 2 19  9.58000000E-04       2.00000000       1.00000000
  2 2 20  9.58000000E-04       2.00000000       1.00000000
  2 2 21  9.58000000E-04       2.00000000       1.00000000
  2 2 22  9.58000000E-04       2.00000000       1.00000000
  2 2 23  9.58000000E-04       2.00000000       1.00000000
  2 2 24  9.58000000E-04       2.00000000       1.00000000
  2 2 25  9.58000000E-04       2.00000000       1.00000000
  2 2 26  9.58000000E-04       2.00000000       1.00000000
  2 2 27  9.58000000E-04       2.00000000       1.00000000
  2 2 28  9.58000000E-04       2.00000000       1.00000000
  2 2 29  9.58000000E-04       2.00000000       1.00000000
  2 2 30  9.58000000E-04       2.00000000       1.00000000
  2 2 31  9.58000000E-04       2.00000000       1.00000000
  2 2 32  9.58000000E-04       2.00000000       1.00000000
  2 2 33  9.58000000E-04       2.00000000       1.00000000
  2 2 34  9.58000000E-04       2.00000000       1.00000000
  2 2 35  9.58000000E-04       2.00000000       1.00000000
  2 2 36  9.58000000E-04       2.00000000       1.00000000
  2 2 37  9.58000000E-04       2.00000000       1.00000000
  2 2 38  9.58000000E-04       2.00000000       1.00000000
  2 2 39  9.58000000E-04       2.00000000       1.00000000
  2 2 40  9.58000000E-04       2.00000000       1.00000000
  2 2 41  9.58000000E-04       2.00000000       1.00000000
  2 2 42  9.58000000E-04       2.00000000       1.00000000
  2 2 43  9.58000000E-04       2.00000000       1.00000000
  2 2 44  9.58000000E-04       2.00000000       1.00000000
  2 2 45  9.58000000E-04       2.00000000       1.00000000
  2 2 46  9.58000000E-04       2.00000000       1.00000000
  2 2 47  9.58000000E-04       2.00000000       1.00000000
  2 2 48  9.58000000E-04       2.00000000       1.00000000
  2 2 49  9.58000000E-04       2.00000000       1.00000000
  2 2 50  9.58000000E-04       2.00000000       1.00000000
  2 2 51  9.58000000E-04       2.00000000       1.00000000
  2 2 52  9.58000000E-04       2.00000000       1.00000000
  2 2 53  9.58000000E-04       2.00000000       1.00000000
  2 2 54  9.58000000E-04       2.00000000       1.00000000
  2 2 55  9.58000000E-04       2.00000000       1.00000000
  2 2 56  9.58000000E-04       2.00000000       1.00000000
  2 2 57  9.58000000E-04       2.00000000       1.00000000
  2 2 58  9.58000000E-04       2.00000000       1.00000000
  2 2 59  9.58000000E-04       2.00000000       1.00000000
  2 2 60  9.58000000E-04       2.00000000       1.00000000
  2 2 61  9.58000000E-04       2.00000000       1.00000000
  2 2 62  9.58000000E-04       2.00000000       1.00000000
  2 2 63  9.58000000E-04       2.00000000       1.00000000
  2 2 64  9.58000000E-04       2.00000000       1.00000000
  2 2 65  9.58000000E-04       2.00000000       1.00000000
  2 2 66  9.58000000E-04       2.00000000       1.00000000
  2 2 67  9.58000000E-04       2.00000000       1.00000000
  2 2 68  9.58000000E-04       2.00000000       1.00000000
  2 2 69  9.58000000E-04       2.00000000       1.00000000
  2 2 70  9.58000000E-04       2.00000000       1.00000000
  2 2 71  9.58000000E-04       2.00000000       1.00000000
  2 2 72  9.58000000E-04       2.00000000       1.00000000
  2 2 73  9.58000000E-04       2.00000000       1.00000000
  2 2 74  9.58000000E-04       2.00000000       1.00000000
  2 2 75  9.58000000E-04       2.00000000       1.00000000
  2 2 76  9.58000000E-04       2.00000000       1.00000000
  2 2 77  9.58000000E-04       2.00000000       1.00000000
  2 2 78  9.58000000E-04       2.00000000       1.00000000
  2 2 79  9.58000000E-04       2.00000000       1.00000000
  2 2 80  9.58000000E-04       2.00000000       1.00000000
  2 2 81  9.58000000E-04       2.00000000       1.00000000
  2 2 82  9.58000000E-04       2.00000000       1.00000000
  2 2 83  9.58000000E-04       2.00000000       1.00000000
  2 2 84  9.58000000E-04       2.00000000       1.00000000
  2 2 85  9.58000000E-04       2.00000000       1.00000000
  2 2 86  9.58000000E-04       2.00000000       1.00000000
  2 2 87  9.58000000E-04       2.00000000       1.00000000
  2 2 88  9.58000000E-04       2.00000000       1.00000000
  2 2 89  9.58000000E-04       2.00000000       1.00000000
  2 2 90  9.58000000E-04       2.00000000       1.00000000
  2 2 91  9.58000000E-04       2.00000000       1.00000000
  2 2 92  9.58000000E-04       2.00000000       1.00000000
  2 2 93  9.58000000E-04       2.00000000       1.00000000
  2 2 94  9.58000000E-04       2.00000000       1.00000000
  2 2 95  9.58000000E-04       2.00000000       1.00000000
  2 2 96  9.58000000E-04       2.00000000       1.00000000
  2 2 97  9.58000000E-04       2.00000000       1.00000000
  2 2 98  9.58000000E-04       2.00000000       1.00000000
  2 2 99  9.58000000E-04       2.00000000       1.00000000
  2 2 100  9.58000000E-04       2.00000000       1.00000000
  2 2 101  9.58000000E-04       2.00000000       1.00000000
  2 2 102  9.58000000E-04       2.00000000       1.00000000
  2 2 103  9.58000000E-04       2.00000000       1.00000000
  2 2 104  9.58000000E-04       2.00000000       1.00000000
  2 2 105  9.58000000E-04       2.00000000       1.00000000
  2 2 106  9.58000000E-04       2.00000000       1.00000000
  2 2 107  9.58000000E-04       2.00000000       1.00000000
  2 2 108  9.58000000E-04       2.00000000       1.00000000
  2 2 109  9.58000000E-04       2.00000000       1.00000000
  2 2 110  9.58000000E-04       2.00000000       1.00000000
  2 2 111  9.58000000E-04       2.00000000       1.00000000
  2 2 112  9.58000000E-04       2.00000000       1.00000000
  2 2 113  9.58000000E-04       2.00000000       1.00000000
  2 2 114  9.58000000E-04       2.00000000       1.00000000
  2 2 115  9.58000000E-04       2.00000000       1.00000000
  2 2 116  9.58000000E-04       2.00000000       1.00000000
  2 2 117  9.58000000E-04       2.00000000       1.00000000
  2 2 118  9.58000000E-04       2.00000000       1.00000000
  2 2 119  9.58000000E-04       2.00000000       1.00000000
  2 2 120  9.58000000E-04       2.00000000       1.00000000
  2 2 121  9.58000000E-04       2.00000000       1.00000000
  2 2 122  9.58000000E-04       2.00000000       1.00000000
  2 2 123  9.58000000E-04       2.00000000       1.00000000
  2 2 124  9.58000000E-04       2.00000000       1.00000000
  2 2 125  9.58000000E-04       2.00000000       1.00000000
  2 2 126  9.58000000E-04       2.00000000       1.00000000
  2 2 127  9.58000000E-04       2.00000000       1.00000000
  2 2 128  9.58000000E-04       2.00000000       1.00000000
  2 2 129  9.58000000E-04       2.00000000       1.00000000
  2 2 130  9.58000000E-04       2.00000000       1.00000000
  2 2 131  9.58000000E-04       2.00000000       1.00000000
  2 2 132  9.58000000E-04       2.00000000       1.00000000
  2 2 133  9.58000000E-04       2.00000000       1.00000000
  2 2 134  9.58000000E-04       2.00000000       1.00000000
  2 2 135  9.58000000E-04       2.00000000       1.00000000
  2 2 136  9.58000000E-04       2.00000000       1.00000000
  2 2 137  9.58000000E-04       2.00000000       1.00000000
  2 2 138  9.58000000E-04       2.00000000       1.00000000
  2 2 139  9.58000000E-04       2.00000000       1.00000000
  2 2 140  9.58000000E-04       2.00000000       1.00000000
  2 2 141  9.58000000E-04       2.00000000       1.00000000
  2 2 142  9.58000000E-04       2.00000000       1.00000000
  2 2 143  9.58000000E-04       2.00000000       1.00000000
  2 2 144  9.58000000E-04       2.00000000       1.00000000
  2 2 145  9.58000000E-04       2.00000000       1.00000000
  2 2 146  9.58000000E-04       2.00000000       1.00000000
  2 2 147  9.58000000E-04       2.00000000       1.00000000
  2 2 148  9.58000000E-04       2.00000000       1.00000000
  2 2 149  9.58000000E-04       2.00000000       1.00000000
  2 2 150  9.58000000E-04       2.00000000       1.00000000
  2 2 151  9.58000000E-04       2.00000000       1.00000000
  2 2 152  9.58000000E-04       2.00000000       1.00000000
  2 2 153  9.58000000E-04       2.00000000       1.00000000
  2 2 154  9.58000000E-04       2.00000000       1.00000000
  2 2 155  9.58000000E-04       2.00000000       1.00000000
  2 2 156  9.58000000E-04       2.00000000       1.00000000
  2 2 157  9.58000000E-04       2.00000000       1.00000000
  2 2 158  9.58000000E-04       2.00000000       1.00000000
  2 2 159  9.58000000E-04       2.00000000       1.00000000
  2 2 160  9.58000000E-04       2.00000000       1.00000000
  2 2 161  9.58000000E-04       2.00000000       1.00000000
  2 2 162  9.58000000E-04       2.00000000       1.00000000
  2 3 1  9.58000000E-04       2.00000000       1.00000000
  2 3 2  9.58000000E-04       2.00000000       1.00000000
  2 3 3  9.58000000E-04       2.00000000       1.00000000
  2 3 4  9.58000000E-04       2.00000000       1.00000000
  2 3 5  9.58000000E-04       2.00000000       1.00000000
  2 3 6  9.58000000E-04       2.00000000       1.00000000
  2 3 7  9.58000000E-04       2.00000000       1.00000000
  2 3 8  9.58000000E-04       2.00000000       1.00000000
  2 3 9  9.58000000E-04       2.00000000       1.00000000
  2 3 10  9.58000000E-04       2.00000000       1.00000000
  2 3 11  9.58000000E-04       2.00000000       1.00000000
  2 3 12  9.58000000E-04       2.00000000       1.00000000
  2 3 13  9.58000000E-04       2.00000000       1.00000000
  2 3 14  9.58000000E-04       2.00000000       1.00000000
  2 3 15  9.58000000E-04       2.00000000       1.00000000
  2 3 16  9.58000000E-04       2.00000000       1.00000000
  2 3 17  9.58000000E-04       2.00000000       1.00000000
  2 3 18  9.58000000E-04       2.00000000       1.00000000
  2 3 19  9.58000000E-04       2.00000000       1.00000000
  2 3 20  9.58000000E-04       2.00000000       1.00000000
  2 3 21  9.58000000E-04       2.00000000       1.00000000
  2 3 22  9.58000000E-04       2.00000000       1.00000000
  2 3 23  9.58000000E-04       2.00000000       1.00000000
  2 3 24  9.58000000E-04       2.00000000       1.00000000
  2 3 25  9.58000000E-04       2.00000000       1.00000000
  2 3 26  9.58000000E-04       2.00000000       1.00000000
  2 3 27  9.58000000E-04       2.00000000       1.00000000
  2 3 28  9.58000000E-04       2.00000000       1.00000000
  2 3 29  9.58000000E-04       2.00000000       1.00000000
  2 3 30  9.58000000E-04       2.00000000       1.00000000
  2 3 31  9.58000000E-04       2.00000000       1.00000000
  2 3 32  9.58000000E-04       2.00000000       1.00000000
  2 3 33  9.58000000E-04       2.00000000       1.00000000
  2 3 34  9.58000000E-04       2.00000000       1.00000000
  2 3 35  9.58000000E-04       2.00000000       1.00000000
  2 3 36  9.58000000E-04       2.00000000       1.00000000
  2 3 37  9.58000000E-04       2.00000000       1.00000000
  2 3 38  9.58000000E-04       2.00000000       1.00000000
  2 3 39  9.58000000E-04       2.00000000       1.00000000
  2 3 40  9.58000000E-04       2.00000000       1.00000000
  2 3 41  9.58000000E-04       2.00000000       1.00000000
  2 3 42  9.58000000E-04       2.00000000       1.00000000
  2 3 43  9.58000000E-04       2.00000000       1.00000000
  2 3 44  9.58000000E-04       2.00000000       1.00000000
  2 3 45  9.58000000E-04       2.00000000       1.00000000
  2 3 46  9.58000000E-04       2.00000000       1.00000000
  2 3 47  9.58000000E-04       2.00000000       1.00000000
  2 3 48  9.58000000E-04       2.00000000       1.00000000
  2 3 49  9.58000000E-04       2.00000000       1.00000000
  2 3 50  9.58000000E-04       2.00000000       1.00000000
  2 3 51  9.58000000E-04       2.00000000       1.00000000
  2 3 52  9.58000000E-04       2.00000000       1.00000000
  2 3 53  9.58000000E-04       2.00000000       1.00000000
  2 3 54  9.58000000E-04       2.00000000       1.00000000
  2 3 55  9.58000000E-04       2.00000000       1.00000000
  2 3 56  9.58000000E-04       2.00000000       1.00000000
  2 3 57  9.58000000E-04       2.00000000       1.00000000
  2 3 58  9.58000000E-04       2.00000000       1.00000000
  2 3 59  9.58000000E-04       2.00000000       1.00000000
  2 3 60  9.58000000E-04       2.00000000       1.00000000
  2 3 61  9.58000000E-04       2.00000000       1.00000000
  2 3 62  9.58000000E-04       2.00000000       1.00000000
  2 3 63  9.58000000E-04       2.00000000       1.00000000
  2 3 64  9.58000000E-04       2.00000000       1.00000000
  2 3 65  9.58000000E-04       2.00000000       1.00000000
  2 3 66  9.58000000E-04       2.00000000       1.00000000
  2 3 67  9.58000000E-04       2.00000000       1.00000000
  2 3 68  9.58000000E-04       2.00000000       1.00000000
  2 3 69  9.58000000E-04       2.00000000       1.00000000
  2 3 70  9.58000000E-04       2.00000000       1.00000000
  2 3 71  9.58000000E-04       2.00000000       1.00000000
  2 3 72  9.58000000E-04       2.00000000       1.00000000
  2 3 73  9.58000000E-04       2.00000000       1.00000000
  2 3 74  9.58000000E-04       2.00000000       1.00000000
  2 3 75  9.58000000E-04       2.00000000       1.00000000
  2 3 76  9.58000000E-04       2.00000000       1.00000000
  2 3 77  9.58000000E-04       2.00000000       1.00000000
  2 3 78  9.58000000E-04       2.00000000       1.00000000
  2 3 79  9.58000000E-04       2.00000000       1.00000000
  2 3 80  9.58000000E-04       2.00000000       1.00000000
  2 3 81  9.58000000E-04       2.00000000       1.00000000
  2 3 82  9.58000000E-04       2.00000000       1.00000000
  2 3 83  9.58000000E-04       2.00000000       1.00000000
  2 3 84  9.58000000E-04       2.00000000       1.00000000
  2 3 85  9.58000000E-04       2.00000000       1.00000000
  2 3 86  9.58000000E-04       2.00000000       1.00000000
  2 3 87  9.58000000E-04       2.00000000       1.00000000
  2 3 88  9.58000000E-04       2.00000000       1.00000000
  2 3 89  9.58000000E-04       2.00000000       1.00000000
  2 3 90  9.58000000E-04       2.00000000       1.00000000
  2 3 91  9.58000000E-04       2.00000000       1.00000000
  2 3 92  9.58000000E-04       2.00000000       1.00000000
  2 3 93  9.58000000E-04       2.00000000       1.00000000
  2 3 94  9.58000000E-04       2.00000000       1.00000000
  2 3 95  9.58000000E-04       2.00000000       1.00000000
  2 3 96  9.58000000E-04       2.00000000       1.00000000
  2 3 97  9.58000000E-04       2.00000000       1.00000000
  2 3 98  9.58000000E-04       2.00000000       1.00000000
  2 3 99  9.58000000E-04       2.00000000       1.00000000
  2 3 100  9.58000000E-04       2.00000000       1.00000000
  2 3 101  9.58000000E-04       2.00000000       1.00000000
  2 3 102  9.58000000E-04       2.00000000       1.00000000
  2 3 103  9.58000000E-04       2.00000000       1.00000000
  2 3 104  9.58000000E-04       2.00000000       1.00000000
  2 3 105  9.58000000E-04       2.00000000       1.00000000
  2 3 106  9.58000000E-04       2.00000000       1.00000000
  2 3 107  9.58000000E-04       2.00000000       1.00000000
  2 3 108  9.58000000E-04       2.00000000       1.00000000
  2 3 109  9.58000000E-04       2.00000000       1.00000000
  2 3 110  9.58000000E-04       2.00000000       1.00000000
  2 3 111  9.58000000E-04       2.00000000       1.00000000
  2 3 112  9.58000000E-04       2.00000000       1.00000000
  2 3 113  9.58000000E-04       2.00000000       1.00000000
  2 3 114  9.58000000E-04       2.00000000       1.00000000
  2 3 115  9.58000000E-04       2.00000000       1.00000000
  2 3 116  9.58000000E-04       2.00000000       1.00000000
  2 3 117  9.58000000E-04       2.00000000       1.00000000
  2 3 118  9.58000000E-04       2.00000000       1.00000000
  2 3 119  9.58000000E-04       2.00000000       1.00000000
  2 3 120  9.58000000E-04       2.00000000       1.00000000
  2 3 121  9.58000000E-04       2.00000000       1.00000000
  2 3 122  9.58000000E-04       2.00000000       1.00000000
  2 3 123  9.58000000E-04       2.00000000       1.00000000
  2 3 124  9.58000000E-04       2.00000000       1.00000000
  2 3 125  9.58000000E-04       2.00000000       1.00000000
  2 3 126  9.58000000E-04       2.00000000       1.00000000
  2 3 127  9.58000000E-04       2.00000000       1.00000000
  2 3 128  9.58000000E-04       2.00000000       1.00000000
  2 3 129  9.58000000E-04       2.00000000       1.00000000
  2 3 130  9.58000000E-04       2.00000000       1.00000000
  2 3 131  9.58000000E-04       2.00000000       1.00000000
  2 3 132  9.58000000E-04       2.00000000       1.00000000
  2 3 133  9.58000000E-04       2.00000000       1.00000000
  2 3 134  9.58000000E-04       2.00000000       1.00000000
  2 3 135  9.58000000E-04       2.00000000       1.00000000
  2 3 136  9.58000000E-04       2.00000000       1.00000000
  2 3 137  9.58000000E-04       2.00000000       1.00000000
  2 3 138  9.58000000E-04       2.00000000       1.00000000
  2 3 139  9.58000000E-04       2.00000000       1.00000000
  2 3 140  9.58000000E-04       2.00000000       1.00000000
  2 3 141  9.58000000E-04       2.00000000       1.00000000
  2 3 142  9.58000000E-04       2.00000000       1.00000000
  2 3 143  9.58000000E-04       2.00000000       1.00000000
  2 3 144  9.58000000E-04       2.00000000       1.00000000
  2 3 145  9.58000000E-04       2.00000000       1.00000000
  2 3 146  9.58000000E-04       2.00000000       1.00000000
  2 3 147  9.58000000E-04       2.00000000       1.00000000
  2 3 148  9.58000000E-04       2.00000000       1.00000000
  2 3 149  9.58000000E-04       2.00000000       1.00000000
  2 3 150  9.58000000E-04       2.00000000       1.00000000
  2 3 151  9.58000000E-04       2.00000000       1.00000000
  2 3 152  9.58000000E-04       2.00000000       1.00000000
  2 3 153  9.58000000E-04       2.00000000       1.00000000
  2 3 154  9.58000000E-04       2.00000000       1.00000000
  2 3 155  9.58000000E-04       2.00000000       1.00000000
  2 3 156  9.58000000E-04       2.00000000       1.00000000
  2 3 157  9.58000000E-04       2.00000000       1.00000000
  2 3 158  9.58000000E-04       2.00000000       1.00000000
  2 3 159  9.58000000E-04       2.00000000       1.00000000
  2 3 160  9.58000000E-04       2.00000000       1.00000000
  2 3 161  9.58000000E-04       2.00000000       1.00000000
  2 3 162  9.58000000E-04       2.00000000       1.00000000
  2 4 1  9.58000000E-04       2.00000000       1.00000000
  2 4 2  9.58000000E-04       2.00000000       1.00000000
  2 4 3  9.58000000E-04       2.00000000       1.00000000
  2 4 4  9.58000000E-04       2.00000000       1.00000000
  2 4 5  9.58000000E-04       2.00000000       1.00000000
  2 4 6  9.58000000E-04       2.00000000       1.00000000
  2 4 7  9.58000000E-04       2.00000000       1.00000000
  2 4 8  9.58000000E-04       2.00000000       1.00000000
  2 4 9  9.58000000E-04       2.00000000       1.00000000
  2 4 10  9.58000000E-04       2.00000000       1.00000000
  2 4 11  9.58000000E-04       2.00000000       1.00000000
  2 4 12  9.58000000E-04       2.00000000       1.00000000
  2 4 13  9.58000000E-04       2.00000000       1.00000000
  2 4 14  9.58000000E-04       2.00000000       1.00000000
  2 4 15  9.58000000E-04       2.00000000       1.00000000