# File generated by Flopy version 3.3.5 on 10/01/2024 at 12:40:03.
BEGIN OPTIONS
  LIST  gv1.lst
  PRINT_FLOWS
  SAVE_FLOWS
  NEWTON
END OPTIONS

BEGIN PACKAGES
  dis6  gv1.dis
  ic6  gv1.ic6
  oc6  gv1.oc6
  npf6  gv1.npf
  drn6  gv1.drn  drn-1
  rch6  gv1.rch  rch-1
END PACKAGES

