# File generated by Flopy version 3.3.5 on 10/01/2024 at 12:40:03.
BEGIN OPTIONS
  CONTINUE
END OPTIONS

BEGIN TIMING
  TDIS6  gv1.tdis
END TIMING

BEGIN MODELS
  gwf6  gv1.nam  mf6model
END MODELS

BEGIN EXCHANGES
END EXCHANGES

BEGIN SOLUTIONGROUP  1
  ims6  gv1.ims  mf6model  

END SOLUTIONGROUP  1

